Version 4
SHEET 1 1140 680
WIRE 688 -96 656 -96
WIRE 816 -96 768 -96
WIRE 720 -48 -240 -48
WIRE 720 64 720 -48
WIRE 368 80 -64 80
WIRE 464 80 448 80
WIRE 496 80 464 80
WIRE 656 80 656 -96
WIRE 656 80 576 80
WIRE 688 80 656 80
WIRE 816 96 816 -96
WIRE 816 96 752 96
WIRE 848 96 816 96
WIRE 944 96 912 96
WIRE -64 112 -64 80
WIRE 464 112 464 80
WIRE 688 112 656 112
WIRE -240 128 -240 -48
WIRE 656 144 656 112
WIRE 944 160 944 96
WIRE 224 208 48 208
WIRE 464 208 224 208
WIRE 48 224 48 208
WIRE 224 224 224 208
WIRE -240 320 -240 208
WIRE -64 320 -64 192
WIRE -64 320 -240 320
WIRE 48 320 48 304
WIRE 48 320 -64 320
WIRE 160 320 48 320
WIRE 224 320 224 304
WIRE 224 320 160 320
WIRE 512 320 512 192
WIRE 512 320 224 320
WIRE 944 320 944 240
WIRE 944 320 512 320
WIRE -240 352 -240 320
WIRE 160 368 160 320
WIRE -240 480 -240 432
WIRE 720 480 720 128
WIRE 720 480 -240 480
FLAG 160 368 0
FLAG 656 144 0
SYMBOL voltage -240 112 R0
WINDOW 123 0 0 Left 2
WINDOW 39 0 0 Left 2
SYMATTR InstName V1
SYMATTR Value 15
SYMBOL voltage -240 336 R0
WINDOW 123 0 0 Left 2
WINDOW 39 0 0 Left 2
SYMATTR InstName V2
SYMATTR Value 15
SYMBOL Opamps\\OP37 720 32 R0
SYMATTR InstName U2
SYMBOL res 592 64 R90
WINDOW 0 0 56 VBottom 2
WINDOW 3 32 56 VTop 2
SYMATTR InstName R1
SYMATTR Value 100
SYMBOL res 784 -112 R90
WINDOW 0 0 56 VBottom 2
WINDOW 3 32 56 VTop 2
SYMATTR InstName R2
SYMATTR Value 22k
SYMBOL res 464 64 R90
WINDOW 0 0 56 VBottom 2
WINDOW 3 32 56 VTop 2
SYMATTR InstName R3
SYMATTR Value 10k
SYMBOL nmos 512 112 M0
SYMATTR InstName M1
SYMBOL res 208 208 R0
SYMATTR InstName R4
SYMATTR Value 1000k
SYMBOL voltage 48 208 R0
WINDOW 123 0 0 Left 2
WINDOW 39 0 0 Left 2
SYMATTR InstName V3
SYMATTR Value 0.7
SYMBOL Misc\\signal -64 96 R0
WINDOW 123 0 0 Left 2
WINDOW 39 0 0 Left 2
SYMATTR InstName V4
SYMBOL cap 912 80 R90
WINDOW 0 0 32 VBottom 2
WINDOW 3 32 32 VTop 2
SYMATTR InstName C1
SYMATTR Value 1µ
SYMBOL res 928 144 R0
SYMATTR InstName R5
SYMATTR Value 1k
TEXT -496 336 Left 2 !.tran 0 10mS 0mS
