Version 4
SHEET 1 880 680
WIRE 160 96 128 96
WIRE 240 96 160 96
WIRE 160 128 160 96
WIRE 240 176 240 96
WIRE 240 176 224 176
WIRE 256 176 240 176
WIRE 160 288 160 224
WIRE 240 288 160 288
WIRE 320 288 320 224
WIRE 320 288 240 288
WIRE 240 336 240 288
FLAG 240 336 0
SYMBOL npn 224 128 M0
SYMATTR InstName Q1
SYMBOL npn 256 128 R0
SYMATTR InstName Q2
SYMBOL res 144 80 R90
WINDOW 0 0 56 VBottom 2
WINDOW 3 32 56 VTop 2
SYMATTR InstName R1
